CHEMBL3955019_P10000113
     RDKit          3D

 53 56  0  0  0  0  0  0  0  0999 V2000
   -7.3669   -0.0147   -1.1133 C   0  0  0  0  0  0  0  0  0  0  0  0
   -6.2163    0.1567   -0.1182 C   0  0  0  0  0  0  0  0  0  0  0  0
   -6.4903    1.3344    0.8155 C   0  0  0  0  0  0  0  0  0  0  0  0
   -5.0139    0.4091   -0.8158 O   0  0  0  0  0  0  0  0  0  0  0  0
   -4.4186   -0.7904   -1.0612 N   0  0  0  0  0  0  0  0  0  0  0  0
   -3.4724   -1.3524   -0.1436 C   0  0  0  0  0  0  0  0  0  0  0  0
   -3.0526   -2.5257   -0.3294 O   0  0  0  0  0  0  0  0  0  0  0  0
   -3.0336   -0.6067    1.0524 C   0  0  0  0  0  0  0  0  0  0  0  0
   -3.2091   -1.1963    2.3149 C   0  0  0  0  0  0  0  0  0  0  0  0
   -2.8407   -0.5104    3.4746 C   0  0  0  0  0  0  0  0  0  0  0  0
   -2.2885    0.7679    3.3854 C   0  0  0  0  0  0  0  0  0  0  0  0
   -2.0899    1.3582    2.1358 C   0  0  0  0  0  0  0  0  0  0  0  0
   -2.4456    0.6766    0.9639 C   0  0  0  0  0  0  0  0  0  0  0  0
   -2.0832    1.4558   -0.6187 S   0  0  0  0  0  0  0  0  0  0  0  0
   -0.4493    0.7255   -0.7204 C   0  0  0  0  0  0  0  0  0  0  0  0
    0.6520    1.3715   -0.1100 C   0  0  0  0  0  0  0  0  0  0  0  0
    1.9385    0.8045   -0.1711 C   0  0  0  0  0  0  0  0  0  0  0  0
    2.0881   -0.3926   -0.8753 C   0  0  0  0  0  0  0  0  0  0  0  0
    1.0185   -1.0235   -1.4492 C   0  0  0  0  0  0  0  0  0  0  0  0
   -0.2681   -0.4939   -1.4017 C   0  0  0  0  0  0  0  0  0  0  0  0
    1.4133   -2.1871   -1.9879 N   0  0  0  0  0  0  0  0  0  0  0  0
    2.7164   -2.3291   -1.7763 N   0  0  0  0  0  0  0  0  0  0  0  0
    3.1642   -1.2382   -1.1087 C   0  0  0  0  0  0  0  0  0  0  0  0
    4.5704   -1.0777   -0.6985 C   0  0  0  0  0  0  0  0  0  0  0  0
    5.1769    0.1164   -0.6618 C   0  0  0  0  0  0  0  0  0  0  0  0
    6.5856    0.3303   -0.2574 C   0  0  0  0  0  0  0  0  0  0  0  0
    7.5271   -0.7132   -0.1521 C   0  0  0  0  0  0  0  0  0  0  0  0
    8.8384   -0.4194    0.2293 C   0  0  0  0  0  0  0  0  0  0  0  0
    9.2083    0.8985    0.4963 C   0  0  0  0  0  0  0  0  0  0  0  0
    8.2566    1.9107    0.3736 C   0  0  0  0  0  0  0  0  0  0  0  0
    6.9846    1.6072    0.0021 N   0  0  0  0  0  0  0  0  0  0  0  0
   -7.1746   -0.8900   -1.7684 H   0  0  0  0  0  0  0  0  0  0  0  0
   -8.3212   -0.1887   -0.5718 H   0  0  0  0  0  0  0  0  0  0  0  0
   -7.4694    0.8913   -1.7478 H   0  0  0  0  0  0  0  0  0  0  0  0
   -6.1544   -0.7568    0.5225 H   0  0  0  0  0  0  0  0  0  0  0  0
   -6.5860    2.2774    0.2351 H   0  0  0  0  0  0  0  0  0  0  0  0
   -7.4257    1.1628    1.3902 H   0  0  0  0  0  0  0  0  0  0  0  0
   -5.6505    1.4435    1.5350 H   0  0  0  0  0  0  0  0  0  0  0  0
   -4.6464   -1.3039   -1.9421 H   0  0  0  0  0  0  0  0  0  0  0  0
   -3.6495   -2.1823    2.4027 H   0  0  0  0  0  0  0  0  0  0  0  0
   -2.9887   -0.9687    4.4439 H   0  0  0  0  0  0  0  0  0  0  0  0
   -2.0062    1.2992    4.2851 H   0  0  0  0  0  0  0  0  0  0  0  0
   -1.6436    2.3430    2.0784 H   0  0  0  0  0  0  0  0  0  0  0  0
    0.5059    2.3013    0.4246 H   0  0  0  0  0  0  0  0  0  0  0  0
    2.7660    1.2787    0.3364 H   0  0  0  0  0  0  0  0  0  0  0  0
   -1.0984   -1.0077   -1.8678 H   0  0  0  0  0  0  0  0  0  0  0  0
    0.8128   -2.8862   -2.4784 H   0  0  0  0  0  0  0  0  0  0  0  0
    5.1136   -1.9839   -0.4772 H   0  0  0  0  0  0  0  0  0  0  0  0
    4.6189    0.9990   -0.9445 H   0  0  0  0  0  0  0  0  0  0  0  0
    7.2763   -1.7393   -0.3777 H   0  0  0  0  0  0  0  0  0  0  0  0
    9.5703   -1.2132    0.3102 H   0  0  0  0  0  0  0  0  0  0  0  0
   10.2228    1.1337    0.7912 H   0  0  0  0  0  0  0  0  0  0  0  0
    8.5279    2.9389    0.5737 H   0  0  0  0  0  0  0  0  0  0  0  0
  1  2  1  0
  2  3  1  0
  2  4  1  0
  4  5  1  0
  5  6  1  0
  6  7  2  0
  6  8  1  0
  8  9  2  0
  9 10  1  0
 10 11  2  0
 11 12  1  0
 12 13  2  0
 13 14  1  0
 14 15  1  0
 15 16  2  0
 16 17  1  0
 17 18  2  0
 18 19  1  0
 19 20  2  0
 19 21  1  0
 21 22  1  0
 22 23  2  0
 23 24  1  0
 24 25  2  0
 25 26  1  0
 26 27  2  0
 27 28  1  0
 28 29  2  0
 29 30  1  0
 30 31  2  0
 13  8  1  0
 20 15  1  0
 23 18  1  0
 31 26  1  0
  1 32  1  0
  1 33  1  0
  1 34  1  0
  2 35  1  0
  3 36  1  0
  3 37  1  0
  3 38  1  0
  5 39  1  0
  9 40  1  0
 10 41  1  0
 11 42  1  0
 12 43  1  0
 16 44  1  0
 17 45  1  0
 20 46  1  0
 21 47  1  0
 24 48  1  0
 25 49  1  0
 27 50  1  0
 28 51  1  0
 29 52  1  0
 30 53  1  0
M  END
